
**** 12/02/22 08:59:17 ******* PSpice 17.4.0 (Nov 2018) ******* ID# 0 ********

 ** Profile: "SCHEMATIC1-lab4"  [ D:\MDDT\LAB4\lab4-PSpiceFiles\SCHEMATIC1\lab4.sim ] 


 ****     CIRCUIT DESCRIPTION


******************************************************************************




** Creating circuit file "lab4.cir" 
** WARNING: THIS AUTOMATICALLY GENERATED FILE MAY BE OVERWRITTEN BY SUBSEQUENT SIMULATIONS

*Libraries: 
* Profile Libraries :
* Local Libraries :
* From [PSPICE NETLIST] section of C:\cds_spb_home\cdssetup\OrCAD_PSpiceTIPSpice_Install\17.4.0\PSpice.ini file:
.lib "nom_pspti.lib" 
.lib "nom.lib" 

*Analysis directives: 
.OPTIONS ADVCONV
.OPTIONS FILEMODELSEARCH
.PROBE64 V(alias(*)) I(alias(*)) W(alias(*)) D(alias(*)) NOISE(alias(*)) 
.INC "..\SCHEMATIC1.net" 



**** INCLUDING SCHEMATIC1.net ****
* source LAB4
E_U1         N00322 0 VALUE {LIMIT(V(N00130,N00137)*1E6,-15V,+15V)}
R_R1         N00137 0  10k TC=0,0 
V_V1         N00130 0 3Vdc
Q_Q2         N00335 N00322 0 QbreakN 
V_V2         N00335 0 12Vdc

**** RESUMING lab4.cir ****
.END

**** 12/02/22 08:59:17 ******* PSpice 17.4.0 (Nov 2018) ******* ID# 0 ********

 ** Profile: "SCHEMATIC1-lab4"  [ D:\MDDT\LAB4\lab4-PSpiceFiles\SCHEMATIC1\lab4.sim ] 


 ****     BJT MODEL PARAMETERS


******************************************************************************




               QbreakN         
               NPN             
       LEVEL    1            
          IS  100.000000E-18 
          BF  100            
          NF    1            
          BR    1            
          NR    1            
         ISS    0            
          RE    0            
          RC    0            
         CJE    0            
         VJE     .75         
         CJC    0            
         VJC     .75         
         MJC     .33         
        XCJC    1            
         CJS    0            
         VJS     .75         
          KF    0            
          AF    1            
          CN    2.42         
           D     .87         


Starting pseudo-transient algorithm.

INFO(ORPSIM-16594): To improve Pseudotransient Convergence and Performance, set following options to relax stabilization criteria for capacitor currents and inductor voltages: PTRANABSTOL=1e-5, PTRANVNTOL=1e-4

ERROR -- Convergence problem in bias point calculation


  Last node voltages tried were:

 NODE   VOLTAGE     NODE   VOLTAGE     NODE   VOLTAGE     NODE   VOLTAGE


(N00130)     .3097 (N00137)    0.0000 (N00322)    1.5484 (N00335)    1.2387 


  These voltages failed to converge:

    V(N00322)                 =     15.00V  \     1.548V

  These supply currents failed to converge:

    I(E_U1)                   =   -8.273nA  \  -100.00MA
    I(V_V2)                   =    16.53nA  \   -10.00GA

  These devices failed to converge:
    Q_Q2      

ERROR(ORPSIM-15659): Discontinuing simulation due to convergence problem

**** Interrupt ****
