
**** 12/02/22 09:55:16 ******* PSpice 17.4.0 (Nov 2018) ******* ID# 0 ********

 ** Profile: "SCHEMATIC1-lab4"  [ D:\MDDT\LAB4\lab4-PSpiceFiles\SCHEMATIC1\lab4.sim ] 


 ****     CIRCUIT DESCRIPTION


******************************************************************************




** Creating circuit file "lab4.cir" 
** WARNING: THIS AUTOMATICALLY GENERATED FILE MAY BE OVERWRITTEN BY SUBSEQUENT SIMULATIONS

*Libraries: 
* Profile Libraries :
* Local Libraries :
* From [PSPICE NETLIST] section of C:\cds_spb_home\cdssetup\OrCAD_PSpiceTIPSpice_Install\17.4.0\PSpice.ini file:
.lib "nom_pspti.lib" 
.lib "nom.lib" 

*Analysis directives: 
.AC LIN 200 1 50k
.OPTIONS ADVCONV
.OPTIONS FILEMODELSEARCH
.PROBE64 V(alias(*)) I(alias(*)) W(alias(*)) D(alias(*)) NOISE(alias(*)) 
.INC "..\SCHEMATIC1.net" 



**** INCLUDING SCHEMATIC1.net ****
* source LAB4
E_U1         N01138 0 VALUE {LIMIT(V(N01742,N00137)*1E6,-40V,+40V)}
R_R1         N00137 N01138  9k TC=0,0 
R_R2         0 N00137  1k TC=0,0 
V_V2         N01729 0 DC 0Vdc AC 2Vac 
C_C2         N01729 N01742  1n  TC=0,0 
R_R3         0 N01742  10k TC=0,0 

**** RESUMING lab4.cir ****
.END

INFO(ORPSIM-16573): AC analysis does not support expression evaluation at each frequency. ABM devices with non-linear operations will be evaluated only at bias point.

**** 12/02/22 09:55:16 ******* PSpice 17.4.0 (Nov 2018) ******* ID# 0 ********

 ** Profile: "SCHEMATIC1-lab4"  [ D:\MDDT\LAB4\lab4-PSpiceFiles\SCHEMATIC1\lab4.sim ] 


 ****     SMALL SIGNAL BIAS SOLUTION       TEMPERATURE =   27.000 DEG C


******************************************************************************



 NODE   VOLTAGE     NODE   VOLTAGE     NODE   VOLTAGE     NODE   VOLTAGE


(N00137)    0.0000 (N01138)    0.0000 (N01729)    0.0000 (N01742)    0.0000 




    VOLTAGE SOURCE CURRENTS
    NAME         CURRENT

    V_V2         0.000E+00

    TOTAL POWER DISSIPATION   0.00E+00  WATTS



          JOB CONCLUDED

**** 12/02/22 09:55:16 ******* PSpice 17.4.0 (Nov 2018) ******* ID# 0 ********

 ** Profile: "SCHEMATIC1-lab4"  [ D:\MDDT\LAB4\lab4-PSpiceFiles\SCHEMATIC1\lab4.sim ] 


 ****     JOB STATISTICS SUMMARY


******************************************************************************



  License check-out time            =      114.09
  Total job time (using Solver 1)   =         .22
